Version 4
SHEET 1 996 680
WIRE -1488 -432 -1600 -432
WIRE -928 -432 -1088 -432
WIRE 208 -432 -400 -432
WIRE 448 -400 400 -400
WIRE 608 -400 528 -400
WIRE -928 -384 -928 -432
WIRE -928 -384 -1504 -384
WIRE -640 -384 -704 -384
WIRE -416 -384 -560 -384
WIRE 176 -384 -368 -384
WIRE 608 -368 608 -400
WIRE 672 -368 608 -368
WIRE -1600 -336 -1600 -432
WIRE -1504 -320 -1504 -384
WIRE -1488 -320 -1504 -320
WIRE -800 -320 -928 -320
WIRE -704 -320 -704 -384
WIRE -704 -320 -800 -320
WIRE -592 -320 -704 -320
WIRE -448 -320 -592 -320
WIRE 400 -320 400 -400
WIRE 480 -320 400 -320
WIRE 608 -320 608 -368
WIRE 608 -320 544 -320
WIRE 208 -304 208 -432
WIRE 224 -304 208 -304
WIRE 352 -304 304 -304
WIRE -592 -288 -592 -320
WIRE -368 -288 -368 -384
WIRE -352 -288 -368 -288
WIRE -128 -288 -128 -320
WIRE -128 -288 -160 -288
WIRE -800 -272 -800 -320
WIRE -400 -256 -400 -432
WIRE -352 -256 -400 -256
WIRE -112 -256 -160 -256
WIRE -416 -224 -416 -384
WIRE -400 -224 -416 -224
WIRE -352 -224 -400 -224
WIRE -128 -224 -128 -288
WIRE -128 -224 -160 -224
WIRE 352 -224 352 -304
WIRE 400 -224 400 -320
WIRE 400 -224 352 -224
WIRE 464 -224 400 -224
WIRE 672 -208 672 -368
WIRE 672 -208 528 -208
WIRE 784 -208 672 -208
WIRE 944 -208 864 -208
WIRE 992 -208 944 -208
WIRE -448 -192 -448 -320
WIRE -352 -192 -448 -192
WIRE -144 -192 -160 -192
WIRE -96 -192 -144 -192
WIRE -32 -192 -96 -192
WIRE 176 -192 176 -384
WIRE 224 -192 176 -192
WIRE 368 -192 304 -192
WIRE 464 -192 368 -192
WIRE 944 -160 944 -208
WIRE -1600 -144 -1600 -256
WIRE -800 -144 -800 -192
WIRE -800 -144 -1600 -144
WIRE -736 -144 -800 -144
WIRE -592 -144 -592 -224
WIRE -592 -144 -656 -144
WIRE -400 -144 -400 -224
WIRE -400 -144 -448 -144
WIRE -144 -144 -144 -192
WIRE -96 -144 -96 -192
WIRE -32 -128 -32 -192
WIRE -448 -112 -448 -144
WIRE -400 -112 -400 -144
WIRE 368 -112 368 -192
WIRE 400 -112 368 -112
WIRE 432 -112 400 -112
WIRE 560 -112 512 -112
WIRE 608 -112 560 -112
WIRE 944 -64 944 -96
WIRE -144 -48 -144 -80
WIRE -112 -48 -144 -48
WIRE -96 -48 -96 -80
WIRE -96 -48 -112 -48
WIRE -448 -16 -448 -48
WIRE -432 -16 -448 -16
WIRE -400 -16 -400 -48
WIRE -400 -16 -432 -16
WIRE -112 -16 -112 -48
WIRE 400 -16 400 -112
WIRE 448 -16 400 -16
WIRE 560 -16 560 -112
WIRE 560 -16 512 -16
WIRE -432 16 -432 -16
FLAG -432 16 0
FLAG -112 -256 0
FLAG -128 -320 0
FLAG -112 -16 0
FLAG -32 -48 0
FLAG 608 -112 0
FLAG 944 -64 0
SYMBOL res -1392 -448 R90
WINDOW 0 0 56 VBottom 2
WINDOW 3 32 56 VTop 2
SYMATTR InstName R1
SYMBOL res -1312 -448 R90
WINDOW 0 0 56 VBottom 2
WINDOW 3 32 56 VTop 2
SYMATTR InstName R2
SYMBOL res -1232 -448 R90
WINDOW 0 0 56 VBottom 2
WINDOW 3 32 56 VTop 2
SYMATTR InstName R3
SYMBOL res -1152 -448 R90
WINDOW 0 0 56 VBottom 2
WINDOW 3 32 56 VTop 2
SYMATTR InstName R4
SYMBOL res -1072 -448 R90
WINDOW 0 0 56 VBottom 2
WINDOW 3 32 56 VTop 2
SYMATTR InstName R5
SYMBOL res -1392 -336 R90
WINDOW 0 0 56 VBottom 2
WINDOW 3 32 56 VTop 2
SYMATTR InstName R6
SYMBOL res -1312 -336 R90
WINDOW 0 0 56 VBottom 2
WINDOW 3 32 56 VTop 2
SYMATTR InstName R7
SYMBOL res -1232 -336 R90
WINDOW 0 0 56 VBottom 2
WINDOW 3 32 56 VTop 2
SYMATTR InstName R8
SYMBOL res -1152 -336 R90
WINDOW 0 0 56 VBottom 2
WINDOW 3 32 56 VTop 2
SYMATTR InstName R9
SYMBOL res -1072 -336 R90
WINDOW 0 0 56 VBottom 2
WINDOW 3 32 56 VTop 2
SYMATTR InstName R10
SYMBOL res -992 -336 R90
WINDOW 0 0 56 VBottom 2
WINDOW 3 32 56 VTop 2
SYMATTR InstName R11
SYMBOL res -912 -336 R90
WINDOW 0 0 56 VBottom 2
WINDOW 3 32 56 VTop 2
SYMATTR InstName R12
SYMBOL res -816 -288 R0
SYMATTR InstName R13
SYMBOL cap -608 -288 R0
SYMATTR InstName C1
SYMBOL res -640 -160 R90
WINDOW 0 0 56 VBottom 2
WINDOW 3 32 56 VTop 2
SYMATTR InstName R14
SYMBOL AMC1311 -256 -240 R0
SYMATTR InstName U1
SYMBOL res -544 -400 R90
WINDOW 0 0 56 VBottom 2
WINDOW 3 32 56 VTop 2
SYMATTR InstName R15
SYMBOL voltage -1600 -352 R0
SYMATTR InstName V1
SYMBOL cap -416 -112 R0
SYMATTR InstName C2
SYMBOL cap -464 -112 R0
SYMATTR InstName C3
SYMBOL cap -160 -144 R0
SYMATTR InstName C4
SYMBOL cap -112 -144 R0
SYMATTR InstName C5
SYMBOL voltage -32 -144 R0
SYMATTR InstName V2
SYMBOL OpAmps\\opamp 496 -272 R0
SYMATTR InstName U2
SYMBOL res 320 -208 R90
WINDOW 0 0 56 VBottom 2
WINDOW 3 32 56 VTop 2
SYMATTR InstName R16
SYMBOL res 320 -320 R90
WINDOW 0 0 56 VBottom 2
WINDOW 3 32 56 VTop 2
SYMATTR InstName R17
SYMBOL res 528 -128 R90
WINDOW 0 0 56 VBottom 2
WINDOW 3 32 56 VTop 2
SYMATTR InstName R18
SYMBOL res 544 -416 R90
WINDOW 0 0 56 VBottom 2
WINDOW 3 32 56 VTop 2
SYMATTR InstName R20
SYMBOL cap 512 -32 R90
WINDOW 0 0 32 VBottom 2
WINDOW 3 32 32 VTop 2
SYMATTR InstName C6
SYMBOL cap 544 -336 R90
WINDOW 0 0 32 VBottom 2
WINDOW 3 32 32 VTop 2
SYMATTR InstName C7
SYMBOL res 880 -224 R90
WINDOW 0 0 56 VBottom 2
WINDOW 3 32 56 VTop 2
SYMATTR InstName R19
SYMBOL cap 928 -160 R0
SYMATTR InstName C8
